Measurement: Broad Scan, 532 nm, unoriented, Raman Data RAW
Mineral: Iron
Rruff sample: R070255
Ideal chemistry: Fe
Locality: Camp Creek district, Silver Bow County, Montana, USA
Source: Michael Scott
Description: Steel-gray anhedral grains
Raman shift (cm-1)	intensity
154.637	805.014
171.993	956.15
189.35	1042.12
206.706	1129.21
224.062	1155.78
241.418	1158.16
258.774	1188.65
276.131	1206.18
293.487	1214.07
310.843	1251.78
328.199	1235.25
345.555	1270.12
362.912	1277.23
380.268	1277.53
397.624	1280.98
414.98	1310.21
432.336	1310.27
449.693	1343.11
467.049	1344.66
484.405	1347.89
501.761	1375.9
519.117	1378.48
536.474	1419.67
553.83	1426.3
571.186	1453.72
588.542	1448.98
605.898	1478.46
623.255	1495.23
640.611	1543.21
657.967	1555.59
675.323	1550.7
692.679	1570.36
710.036	1566.91
727.392	1574.93
744.748	1536.81
762.104	1527.13
779.46	1522.57
796.817	1526.66
814.173	1542.38
831.529	1539.54
848.885	1570.27
866.241	1604.15
883.598	1588.41
900.954	1622.65
918.31	1628.95
935.666	1646.73
953.022	1676.42
970.379	1688.04
987.735	1711.71
1005.09	1750.27
1022.45	1770.14
1039.8	1808.06
1057.16	1846.55
1074.52	1853.81
1091.87	1850.38
1109.23	1882.88
1126.58	1901.02
1143.94	1927.22
1161.3	1944.24
1178.65	1970.78
1196.01	2015.78
1213.37	2029.16
1230.72	2080.99
1248.08	2124.86
1265.43	2178.4
1282.79	2206.78
1300.15	2281.9
1317.5	2366.66
1334.86	2395.46
1352.21	2421.34
1369.57	2450.8
1386.93	2422.3
1404.28	2423.87
1421.64	2425.44
1439	2443.37
1456.35	2467.25
1473.71	2452.3
1491.07	2467.45
1508.42	2510.51
1525.78	2538.07
1543.13	2568.82
1560.49	2692.24
1577.85	2722.73
1595.2	2802.96
1612.56	2753.44
1629.91	2722.56
1647.27	2722.34
1664.63	2706.91
1681.98	2693.72
1699.34	2697.52
1716.69	2757.67
1734.05	2763.76
1751.41	2834.42
1768.76	2853.04
1786.12	2840.73
1803.48	2901.64
1820.83	2928.71
1838.19	2981.65
1855.55	3054.08
1872.9	3067.64
1890.26	3131.83
1907.61	3171.59
1924.97	3175.05
1942.33	3224.62
1959.68	3266.55
1977.04	3327.03
1994.39	3391.72
2011.75	3386.08
2029.11	3428.05
2046.46	3485.94
2063.82	3479.9
2081.18	3527.21
2098.53	3610.38
2115.89	3616.01
2133.24	3683.43
2150.6	3723.56
2167.96	3720.77
2185.31	3803.42
2202.67	3855.07
2220.03	3916.61
2237.38	3920.36
2254.74	3931.64
2272.09	3961.79
2289.45	3981.84
2306.81	4106.7
2324.16	4186.08
2341.52	4223.29
2358.88	4159.43
2376.23	4187.88
2393.59	4217.41
2410.94	4299.86
2428.3	4322.75
2445.66	4298.49
2463.01	4363.09
2480.37	4445.68
2497.72	4437.3
2515.08	4483.76
2532.44	4511.45
2549.79	4528.69
2567.15	4618.82
2584.51	4605.04
2601.86	4661.27
2619.22	4683.78
2636.57	4741.73
2653.93	4774.98
2671.29	4804.54
2688.64	4856.59
2706	4925.51
2723.36	4943.3
2740.71	4919.94
2758.07	4940.71
2775.42	5010.04
2792.78	5081.75
2810.14	5089.79
2827.49	5081.04
2844.85	5107.2
2862.2	5225.98
2879.56	5199.14
2896.92	5278.86
2914.27	5306.31
2931.63	5352.33
2948.99	5336.2
2966.34	5369.96
2983.7	5392.81
3001.05	5386.4
3018.41	5475.02
3035.77	5486.96
3053.12	5455.8
3070.48	5468
3087.84	5579
3105.19	5585.29
3122.55	5587.06
3139.9	5625.94
3157.26	5638.91
3174.62	5670.14
3191.97	5708.62
3209.33	5786.17
3226.68	5728.68
3244.04	5708.33
3261.4	5808.37
3278.75	5807.19
3296.11	5846.33
3313.47	5860.93
3330.82	5925.08
3348.18	5973.6
3365.53	5964.97
3382.89	5991.55
3400.25	5975.81
3417.6	6063.44
3434.96	6080.89
3452.32	6069.17
3469.67	6069.26
3487.03	6106.24
3504.38	6131.9
3521.74	6188.41
3539.1	6190.99
3556.45	6154.04
3573.81	6183.41
3591.16	6202.54
3608.52	6231.68
3625.88	6242.72
3643.23	6251.94
3660.59	6320.95
3677.95	6248.44
3695.3	6322.31
3712.66	6353.65
3730.01	6408.86
3747.37	6378.52
3764.73	6447.81
3782.08	6461.88
3799.44	6447.96
3816.8	6466.35
3834.15	6502.56
3851.51	6504.52
3868.86	6447.63
3886.22	6423.59
3903.58	6375.63
3920.93	6251.08
3938.29	6279.83
3955.64	6212.62
3973	6220.01
3990.36	6150.57
4007.71	6139.3
4025.07	6110.52
4042.43	6023.15
4059.78	6014.46
4077.14	5981.31
4094.49	5949.99
4111.85	5937.52
4129.21	5908.82
4146.56	5886.72
4163.92	5848.62
4181.28	5820.98
4198.63	5830.63
4215.99	5836.79
4233.34	5849.09
4250.7	5839.61
4268.06	5893.19
4285.41	6002.84
4302.77	6015.69
4320.12	6024.4
4337.48	6109.3
4354.84	6087.69
4372.19	6142.93
4389.55	6220.51
4406.91	6240.4
4424.26	6355.8
4441.62	6328.72
4458.98	6355.22
4476.33	6421.01
4493.69	6414.19
4511.04	6453.39
4528.4	6490.8
4545.76	6543.27
4563.11	6559.99
4580.47	6574.35
4597.82	6614.18
4615.18	6658.52
4632.54	6685.96
4649.89	6623.02
4667.25	6686.05
4684.6	6776.08
4701.96	6724.45
4719.32	6759.8
4736.67	6793.1
4754.03	6730.03
4771.39	6765.79
4788.74	6785.12
4806.1	6836.66
4823.45	6883.62
4840.81	6897.06
4858.17	6879.52
4875.52	6888.02
4892.88	6864.48
4910.24	6865.99
4927.59	6910.36
4944.95	6815.85
4962.31	6939.33
4979.66	6874.71
4997.02	6841.51
5014.37	6845.51
5031.73	6871.16
5049.09	6856.99
5066.44	6840.76
5083.8	6772.94
5101.15	6827.68
5118.51	6800.25
5135.87	6759.66
5153.22	6685.15
5170.58	6698.26
5187.94	6743.36
5205.29	6754.9
5222.65	6703.92
5240	6695.29
5257.36	6667.91
5274.72	6663.83
5292.07	6663.98
5309.43	6608.46
5326.78	6634.81
5344.14	6543.67
5361.5	6544.7
5378.85	6482.3
5396.21	6470.2
5413.57	6447.79
5430.92	6347.39
5448.28	6373.74
5465.64	6282.06
5482.99	6329.49
5500.35	6217.08
5517.7	6203.02
5535.06	6214.23
5552.42	6123.01
5569.77	6034.28
5587.13	6018.86
5604.48	5968.53
5621.84	5911.68
5639.2	5946.85
5656.55	5823.27
5673.91	5790.54
5691.27	5705.36
5708.62	5707.06
5725.98	5667.31
5743.33	5566.16
5760.69	5589.14
5778.05	5467.62
5795.4	5493.97
5812.76	5399.73
5830.11	5370.94
5847.47	5263.35
5864.83	5282.55
5882.18	5230.31
5899.54	5233.86
5916.9	5134.6
5934.25	5135.17
5951.61	5017.03
5968.96	5013.84
5986.32	4948.48
6003.68	4934.36
6021.03	4876.19
6038.39	4848.35
6055.75	4912.67
6073.1	4752.63
6090.46	4651.22
6107.81	4657.13
6125.17	4579.32
6142.53	4520.51
6159.88	4516.75
6177.24	4447.28
6194.6	4377.42
6211.95	4323.31
6229.31	4323.15
6246.66	4251.6
6264.02	4167.51
6281.38	4121.22
6298.73	4097.69
6316.09	4079.05
6333.44	3978.75
6350.8	3980.09
6368.16	3914.04
6385.51	3905.63
6402.87	3783.3
6420.23	3730.88
6437.58	3747.01
6454.94	3640.97
6472.29	3645.98
6489.65	3571.83
6507.01	3485.41
6524.36	3459.82
6541.72	3456.3
6559.07	3376.95
6576.43	3174.38
6593.79	3059.42
6611.14	2884.76
